*SPEF "ieee 1481-1999"
*DESIGN "user_project_wrapper"
*DATE "11:11:11 Fri 11 11, 1111"
*VENDOR "OpenRCX"
*PROGRAM "Parallel Extraction"
*VERSION "1.0"
*DESIGN_FLOW "NAME_SCOPE LOCAL" "PIN_CAP NONE"
*DIVIDER /
*DELIMITER :
*BUS_DELIMITER []
*T_UNIT 1 NS
*C_UNIT 1 PF
*R_UNIT 1 OHM
*L_UNIT 1 HENRY

*NAME_MAP
*1 analog_io[0]
*2 analog_io[10]
*3 analog_io[11]
*4 analog_io[12]
*5 analog_io[13]
*6 analog_io[14]
*7 analog_io[15]
*8 analog_io[16]
*9 analog_io[17]
*10 analog_io[18]
*11 analog_io[19]
*12 analog_io[1]
*13 analog_io[20]
*14 analog_io[21]
*15 analog_io[22]
*16 analog_io[23]
*17 analog_io[24]
*18 analog_io[25]
*19 analog_io[26]
*20 analog_io[27]
*21 analog_io[28]
*22 analog_io[2]
*23 analog_io[3]
*24 analog_io[4]
*25 analog_io[5]
*26 analog_io[6]
*27 analog_io[7]
*28 analog_io[8]
*29 analog_io[9]
*30 io_in[0]
*31 io_in[10]
*32 io_in[11]
*33 io_in[12]
*34 io_in[13]
*35 io_in[14]
*36 io_in[15]
*37 io_in[16]
*38 io_in[17]
*39 io_in[18]
*40 io_in[19]
*41 io_in[1]
*42 io_in[20]
*43 io_in[21]
*44 io_in[22]
*45 io_in[23]
*46 io_in[24]
*47 io_in[25]
*48 io_in[26]
*49 io_in[27]
*50 io_in[28]
*51 io_in[29]
*52 io_in[2]
*53 io_in[30]
*54 io_in[31]
*55 io_in[32]
*56 io_in[33]
*57 io_in[34]
*58 io_in[35]
*59 io_in[36]
*60 io_in[37]
*61 io_in[3]
*62 io_in[4]
*63 io_in[5]
*64 io_in[6]
*65 io_in[7]
*66 io_in[8]
*67 io_in[9]
*68 io_oeb[0]
*69 io_oeb[10]
*70 io_oeb[11]
*71 io_oeb[12]
*72 io_oeb[13]
*73 io_oeb[14]
*74 io_oeb[15]
*75 io_oeb[16]
*76 io_oeb[17]
*77 io_oeb[18]
*78 io_oeb[19]
*79 io_oeb[1]
*80 io_oeb[20]
*81 io_oeb[21]
*82 io_oeb[22]
*83 io_oeb[23]
*84 io_oeb[24]
*85 io_oeb[25]
*86 io_oeb[26]
*87 io_oeb[27]
*88 io_oeb[28]
*89 io_oeb[29]
*90 io_oeb[2]
*91 io_oeb[30]
*92 io_oeb[31]
*93 io_oeb[32]
*94 io_oeb[33]
*95 io_oeb[34]
*96 io_oeb[35]
*97 io_oeb[36]
*98 io_oeb[37]
*99 io_oeb[3]
*100 io_oeb[4]
*101 io_oeb[5]
*102 io_oeb[6]
*103 io_oeb[7]
*104 io_oeb[8]
*105 io_oeb[9]
*106 io_out[0]
*107 io_out[10]
*108 data\[391\]
*109 io_out[12]
*110 io_out[13]
*111 io_out[14]
*112 io_out[15]
*113 io_out[16]
*114 io_out[17]
*115 io_out[18]
*116 io_out[19]
*117 io_out[1]
*118 io_out[20]
*119 io_out[21]
*120 io_out[22]
*121 io_out[23]
*122 io_out[24]
*123 io_out[25]
*124 io_out[26]
*125 io_out[27]
*126 io_out[28]
*127 io_out[29]
*128 io_out[2]
*129 io_out[30]
*130 io_out[31]
*131 io_out[32]
*132 io_out[33]
*133 io_out[34]
*134 io_out[35]
*135 io_out[36]
*136 io_out[37]
*137 io_out[3]
*138 io_out[4]
*139 io_out[5]
*140 io_out[6]
*141 io_out[7]
*142 io_out[8]
*143 io_out[9]
*144 la_data_in[0]
*145 la_data_in[100]
*146 la_data_in[101]
*147 la_data_in[102]
*148 la_data_in[103]
*149 la_data_in[104]
*150 la_data_in[105]
*151 la_data_in[106]
*152 la_data_in[107]
*153 la_data_in[108]
*154 la_data_in[109]
*155 la_data_in[10]
*156 la_data_in[110]
*157 la_data_in[111]
*158 la_data_in[112]
*159 la_data_in[113]
*160 la_data_in[114]
*161 la_data_in[115]
*162 la_data_in[116]
*163 la_data_in[117]
*164 la_data_in[118]
*165 la_data_in[119]
*166 la_data_in[11]
*167 la_data_in[120]
*168 la_data_in[121]
*169 la_data_in[122]
*170 la_data_in[123]
*171 la_data_in[124]
*172 la_data_in[125]
*173 la_data_in[126]
*174 la_data_in[127]
*175 la_data_in[12]
*176 la_data_in[13]
*177 la_data_in[14]
*178 la_data_in[15]
*179 la_data_in[16]
*180 la_data_in[17]
*181 la_data_in[18]
*182 la_data_in[19]
*183 la_data_in[1]
*184 la_data_in[20]
*185 la_data_in[21]
*186 la_data_in[22]
*187 la_data_in[23]
*188 la_data_in[24]
*189 la_data_in[25]
*190 la_data_in[26]
*191 la_data_in[27]
*192 la_data_in[28]
*193 la_data_in[29]
*194 la_data_in[2]
*195 la_data_in[30]
*196 la_data_in[31]
*197 la_data_in[32]
*198 la_data_in[33]
*199 la_data_in[34]
*200 la_data_in[35]
*201 la_data_in[36]
*202 la_data_in[37]
*203 la_data_in[38]
*204 la_data_in[39]
*205 la_data_in[3]
*206 la_data_in[40]
*207 la_data_in[41]
*208 la_data_in[42]
*209 la_data_in[43]
*210 la_data_in[44]
*211 la_data_in[45]
*212 la_data_in[46]
*213 la_data_in[47]
*214 la_data_in[48]
*215 la_data_in[49]
*216 la_data_in[4]
*217 la_data_in[50]
*218 la_data_in[51]
*219 la_data_in[52]
*220 la_data_in[53]
*221 la_data_in[54]
*222 la_data_in[55]
*223 la_data_in[56]
*224 la_data_in[57]
*225 la_data_in[58]
*226 la_data_in[59]
*227 la_data_in[5]
*228 la_data_in[60]
*229 la_data_in[61]
*230 la_data_in[62]
*231 la_data_in[63]
*232 la_data_in[64]
*233 la_data_in[65]
*234 la_data_in[66]
*235 la_data_in[67]
*236 la_data_in[68]
*237 la_data_in[69]
*238 la_data_in[6]
*239 la_data_in[70]
*240 la_data_in[71]
*241 la_data_in[72]
*242 la_data_in[73]
*243 la_data_in[74]
*244 la_data_in[75]
*245 la_data_in[76]
*246 la_data_in[77]
*247 la_data_in[78]
*248 la_data_in[79]
*249 la_data_in[7]
*250 la_data_in[80]
*251 la_data_in[81]
*252 la_data_in[82]
*253 la_data_in[83]
*254 la_data_in[84]
*255 la_data_in[85]
*256 la_data_in[86]
*257 la_data_in[87]
*258 la_data_in[88]
*259 la_data_in[89]
*260 la_data_in[8]
*261 la_data_in[90]
*262 la_data_in[91]
*263 la_data_in[92]
*264 la_data_in[93]
*265 la_data_in[94]
*266 la_data_in[95]
*267 la_data_in[96]
*268 la_data_in[97]
*269 la_data_in[98]
*270 la_data_in[99]
*271 la_data_in[9]
*272 la_data_out[0]
*273 la_data_out[100]
*274 la_data_out[101]
*275 la_data_out[102]
*276 la_data_out[103]
*277 la_data_out[104]
*278 la_data_out[105]
*279 la_data_out[106]
*280 la_data_out[107]
*281 la_data_out[108]
*282 la_data_out[109]
*283 la_data_out[10]
*284 la_data_out[110]
*285 la_data_out[111]
*286 la_data_out[112]
*287 la_data_out[113]
*288 la_data_out[114]
*289 la_data_out[115]
*290 la_data_out[116]
*291 la_data_out[117]
*292 la_data_out[118]
*293 la_data_out[119]
*294 la_data_out[11]
*295 la_data_out[120]
*296 la_data_out[121]
*297 la_data_out[122]
*298 la_data_out[123]
*299 la_data_out[124]
*300 la_data_out[125]
*301 la_data_out[126]
*302 la_data_out[127]
*303 la_data_out[12]
*304 la_data_out[13]
*305 la_data_out[14]
*306 la_data_out[15]
*307 la_data_out[16]
*308 la_data_out[17]
*309 la_data_out[18]
*310 la_data_out[19]
*311 la_data_out[1]
*312 la_data_out[20]
*313 la_data_out[21]
*314 la_data_out[22]
*315 la_data_out[23]
*316 la_data_out[24]
*317 la_data_out[25]
*318 la_data_out[26]
*319 la_data_out[27]
*320 la_data_out[28]
*321 la_data_out[29]
*322 la_data_out[2]
*323 la_data_out[30]
*324 la_data_out[31]
*325 la_data_out[32]
*326 la_data_out[33]
*327 la_data_out[34]
*328 la_data_out[35]
*329 la_data_out[36]
*330 la_data_out[37]
*331 la_data_out[38]
*332 la_data_out[39]
*333 la_data_out[3]
*334 la_data_out[40]
*335 la_data_out[41]
*336 la_data_out[42]
*337 la_data_out[43]
*338 la_data_out[44]
*339 la_data_out[45]
*340 la_data_out[46]
*341 la_data_out[47]
*342 la_data_out[48]
*343 la_data_out[49]
*344 la_data_out[4]
*345 la_data_out[50]
*346 la_data_out[51]
*347 la_data_out[52]
*348 la_data_out[53]
*349 la_data_out[54]
*350 la_data_out[55]
*351 la_data_out[56]
*352 la_data_out[57]
*353 la_data_out[58]
*354 la_data_out[59]
*355 la_data_out[5]
*356 la_data_out[60]
*357 la_data_out[61]
*358 la_data_out[62]
*359 la_data_out[63]
*360 la_data_out[64]
*361 la_data_out[65]
*362 la_data_out[66]
*363 la_data_out[67]
*364 la_data_out[68]
*365 la_data_out[69]
*366 la_data_out[6]
*367 la_data_out[70]
*368 la_data_out[71]
*369 la_data_out[72]
*370 la_data_out[73]
*371 la_data_out[74]
*372 la_data_out[75]
*373 la_data_out[76]
*374 la_data_out[77]
*375 la_data_out[78]
*376 la_data_out[79]
*377 la_data_out[7]
*378 la_data_out[80]
*379 la_data_out[81]
*380 la_data_out[82]
*381 la_data_out[83]
*382 la_data_out[84]
*383 la_data_out[85]
*384 la_data_out[86]
*385 la_data_out[87]
*386 la_data_out[88]
*387 la_data_out[89]
*388 la_data_out[8]
*389 la_data_out[90]
*390 la_data_out[91]
*391 la_data_out[92]
*392 la_data_out[93]
*393 la_data_out[94]
*394 la_data_out[95]
*395 la_data_out[96]
*396 la_data_out[97]
*397 la_data_out[98]
*398 la_data_out[99]
*399 la_data_out[9]
*400 la_oenb[0]
*401 la_oenb[100]
*402 la_oenb[101]
*403 la_oenb[102]
*404 la_oenb[103]
*405 la_oenb[104]
*406 la_oenb[105]
*407 la_oenb[106]
*408 la_oenb[107]
*409 la_oenb[108]
*410 la_oenb[109]
*411 la_oenb[10]
*412 la_oenb[110]
*413 la_oenb[111]
*414 la_oenb[112]
*415 la_oenb[113]
*416 la_oenb[114]
*417 la_oenb[115]
*418 la_oenb[116]
*419 la_oenb[117]
*420 la_oenb[118]
*421 la_oenb[119]
*422 la_oenb[11]
*423 la_oenb[120]
*424 la_oenb[121]
*425 la_oenb[122]
*426 la_oenb[123]
*427 la_oenb[124]
*428 la_oenb[125]
*429 la_oenb[126]
*430 la_oenb[127]
*431 la_oenb[12]
*432 la_oenb[13]
*433 la_oenb[14]
*434 la_oenb[15]
*435 la_oenb[16]
*436 la_oenb[17]
*437 la_oenb[18]
*438 la_oenb[19]
*439 la_oenb[1]
*440 la_oenb[20]
*441 la_oenb[21]
*442 la_oenb[22]
*443 la_oenb[23]
*444 la_oenb[24]
*445 la_oenb[25]
*446 la_oenb[26]
*447 la_oenb[27]
*448 la_oenb[28]
*449 la_oenb[29]
*450 la_oenb[2]
*451 la_oenb[30]
*452 la_oenb[31]
*453 la_oenb[32]
*454 la_oenb[33]
*455 la_oenb[34]
*456 la_oenb[35]
*457 la_oenb[36]
*458 la_oenb[37]
*459 la_oenb[38]
*460 la_oenb[39]
*461 la_oenb[3]
*462 la_oenb[40]
*463 la_oenb[41]
*464 la_oenb[42]
*465 la_oenb[43]
*466 la_oenb[44]
*467 la_oenb[45]
*468 la_oenb[46]
*469 la_oenb[47]
*470 la_oenb[48]
*471 la_oenb[49]
*472 la_oenb[4]
*473 la_oenb[50]
*474 la_oenb[51]
*475 la_oenb[52]
*476 la_oenb[53]
*477 la_oenb[54]
*478 la_oenb[55]
*479 la_oenb[56]
*480 la_oenb[57]
*481 la_oenb[58]
*482 la_oenb[59]
*483 la_oenb[5]
*484 la_oenb[60]
*485 la_oenb[61]
*486 la_oenb[62]
*487 la_oenb[63]
*488 la_oenb[64]
*489 la_oenb[65]
*490 la_oenb[66]
*491 la_oenb[67]
*492 la_oenb[68]
*493 la_oenb[69]
*494 la_oenb[6]
*495 la_oenb[70]
*496 la_oenb[71]
*497 la_oenb[72]
*498 la_oenb[73]
*499 la_oenb[74]
*500 la_oenb[75]
*501 la_oenb[76]
*502 la_oenb[77]
*503 la_oenb[78]
*504 la_oenb[79]
*505 la_oenb[7]
*506 la_oenb[80]
*507 la_oenb[81]
*508 la_oenb[82]
*509 la_oenb[83]
*510 la_oenb[84]
*511 la_oenb[85]
*512 la_oenb[86]
*513 la_oenb[87]
*514 la_oenb[88]
*515 la_oenb[89]
*516 la_oenb[8]
*517 la_oenb[90]
*518 la_oenb[91]
*519 la_oenb[92]
*520 la_oenb[93]
*521 la_oenb[94]
*522 la_oenb[95]
*523 la_oenb[96]
*524 la_oenb[97]
*525 la_oenb[98]
*526 la_oenb[99]
*527 la_oenb[9]
*528 user_clock2
*529 user_irq[0]
*530 user_irq[1]
*531 user_irq[2]
*534 wb_clk_i
*535 wb_rst_i
*536 wbs_ack_o
*537 wbs_adr_i[0]
*538 wbs_adr_i[10]
*539 wbs_adr_i[11]
*540 wbs_adr_i[12]
*541 wbs_adr_i[13]
*542 wbs_adr_i[14]
*543 wbs_adr_i[15]
*544 wbs_adr_i[16]
*545 wbs_adr_i[17]
*546 wbs_adr_i[18]
*547 wbs_adr_i[19]
*548 wbs_adr_i[1]
*549 wbs_adr_i[20]
*550 wbs_adr_i[21]
*551 wbs_adr_i[22]
*552 wbs_adr_i[23]
*553 wbs_adr_i[24]
*554 wbs_adr_i[25]
*555 wbs_adr_i[26]
*556 wbs_adr_i[27]
*557 wbs_adr_i[28]
*558 wbs_adr_i[29]
*559 wbs_adr_i[2]
*560 wbs_adr_i[30]
*561 wbs_adr_i[31]
*562 wbs_adr_i[3]
*563 wbs_adr_i[4]
*564 wbs_adr_i[5]
*565 wbs_adr_i[6]
*566 wbs_adr_i[7]
*567 wbs_adr_i[8]
*568 wbs_adr_i[9]
*569 wbs_cyc_i
*570 wbs_dat_i[0]
*571 wbs_dat_i[10]
*572 wbs_dat_i[11]
*573 wbs_dat_i[12]
*574 wbs_dat_i[13]
*575 wbs_dat_i[14]
*576 wbs_dat_i[15]
*577 wbs_dat_i[16]
*578 wbs_dat_i[17]
*579 wbs_dat_i[18]
*580 wbs_dat_i[19]
*581 wbs_dat_i[1]
*582 wbs_dat_i[20]
*583 wbs_dat_i[21]
*584 wbs_dat_i[22]
*585 wbs_dat_i[23]
*586 wbs_dat_i[24]
*587 wbs_dat_i[25]
*588 wbs_dat_i[26]
*589 wbs_dat_i[27]
*590 wbs_dat_i[28]
*591 wbs_dat_i[29]
*592 wbs_dat_i[2]
*593 wbs_dat_i[30]
*594 wbs_dat_i[31]
*595 wbs_dat_i[3]
*596 wbs_dat_i[4]
*597 wbs_dat_i[5]
*598 wbs_dat_i[6]
*599 wbs_dat_i[7]
*600 wbs_dat_i[8]
*601 wbs_dat_i[9]
*602 wbs_dat_o[0]
*603 wbs_dat_o[10]
*604 wbs_dat_o[11]
*605 wbs_dat_o[12]
*606 wbs_dat_o[13]
*607 wbs_dat_o[14]
*608 wbs_dat_o[15]
*609 wbs_dat_o[16]
*610 wbs_dat_o[17]
*611 wbs_dat_o[18]
*612 wbs_dat_o[19]
*613 wbs_dat_o[1]
*614 wbs_dat_o[20]
*615 wbs_dat_o[21]
*616 wbs_dat_o[22]
*617 wbs_dat_o[23]
*618 wbs_dat_o[24]
*619 wbs_dat_o[25]
*620 wbs_dat_o[26]
*621 wbs_dat_o[27]
*622 wbs_dat_o[28]
*623 wbs_dat_o[29]
*624 wbs_dat_o[2]
*625 wbs_dat_o[30]
*626 wbs_dat_o[31]
*627 wbs_dat_o[3]
*628 wbs_dat_o[4]
*629 wbs_dat_o[5]
*630 wbs_dat_o[6]
*631 wbs_dat_o[7]
*632 wbs_dat_o[8]
*633 wbs_dat_o[9]
*634 wbs_sel_i[0]
*635 wbs_sel_i[1]
*636 wbs_sel_i[2]
*637 wbs_sel_i[3]
*638 wbs_stb_i
*639 wbs_we_i
*640 clk\[100\]
*641 clk\[101\]
*642 clk\[102\]
*643 clk\[103\]
*644 clk\[104\]
*645 clk\[105\]
*646 clk\[106\]
*647 clk\[107\]
*648 clk\[108\]
*649 clk\[109\]
*650 clk\[10\]
*651 clk\[110\]
*652 clk\[111\]
*653 clk\[112\]
*654 clk\[113\]
*655 clk\[114\]
*656 clk\[115\]
*657 clk\[116\]
*658 clk\[117\]
*659 clk\[118\]
*660 clk\[119\]
*661 clk\[11\]
*662 clk\[120\]
*663 clk\[121\]
*664 clk\[122\]
*665 clk\[123\]
*666 clk\[124\]
*667 clk\[125\]
*668 clk\[126\]
*669 clk\[127\]
*670 clk\[128\]
*671 clk\[129\]
*672 clk\[12\]
*673 clk\[130\]
*674 clk\[131\]
*675 clk\[132\]
*676 clk\[133\]
*677 clk\[134\]
*678 clk\[135\]
*679 clk\[136\]
*680 clk\[137\]
*681 clk\[138\]
*682 clk\[139\]
*683 clk\[13\]
*684 clk\[140\]
*685 clk\[141\]
*686 clk\[142\]
*687 clk\[143\]
*688 clk\[144\]
*689 clk\[145\]
*690 clk\[146\]
*691 clk\[147\]
*692 clk\[148\]
*693 clk\[149\]
*694 clk\[14\]
*695 clk\[150\]
*696 clk\[151\]
*697 clk\[152\]
*698 clk\[153\]
*699 clk\[154\]
*700 clk\[155\]
*701 clk\[156\]
*702 clk\[157\]
*703 clk\[158\]
*704 clk\[159\]
*705 clk\[15\]
*706 clk\[160\]
*707 clk\[161\]
*708 clk\[162\]
*709 clk\[163\]
*710 clk\[164\]
*711 clk\[165\]
*712 clk\[166\]
*713 clk\[167\]
*714 clk\[168\]
*715 clk\[169\]
*716 clk\[16\]
*717 clk\[170\]
*718 clk\[171\]
*719 clk\[172\]
*720 clk\[173\]
*721 clk\[174\]
*722 clk\[175\]
*723 clk\[176\]
*724 clk\[177\]
*725 clk\[178\]
*726 clk\[179\]
*727 clk\[17\]
*728 clk\[180\]
*729 clk\[181\]
*730 clk\[182\]
*731 clk\[183\]
*732 clk\[184\]
*733 clk\[185\]
*734 clk\[186\]
*735 clk\[187\]
*736 clk\[188\]
*737 clk\[189\]
*738 clk\[18\]
*739 clk\[190\]
*740 clk\[191\]
*741 clk\[192\]
*742 clk\[193\]
*743 clk\[194\]
*744 clk\[195\]
*745 clk\[196\]
*746 clk\[197\]
*747 clk\[198\]
*748 clk\[199\]
*749 clk\[19\]
*750 clk\[1\]
*751 clk\[200\]
*752 clk\[201\]
*753 clk\[202\]
*754 clk\[203\]
*755 clk\[204\]
*756 clk\[205\]
*757 clk\[206\]
*758 clk\[207\]
*759 clk\[208\]
*760 clk\[209\]
*761 clk\[20\]
*762 clk\[210\]
*763 clk\[211\]
*764 clk\[212\]
*765 clk\[213\]
*766 clk\[214\]
*767 clk\[215\]
*768 clk\[216\]
*769 clk\[217\]
*770 clk\[218\]
*771 clk\[219\]
*772 clk\[21\]
*773 clk\[220\]
*774 clk\[221\]
*775 clk\[222\]
*776 clk\[223\]
*777 clk\[224\]
*778 clk\[225\]
*779 clk\[226\]
*780 clk\[227\]
*781 clk\[228\]
*782 clk\[229\]
*783 clk\[22\]
*784 clk\[230\]
*785 clk\[231\]
*786 clk\[232\]
*787 clk\[233\]
*788 clk\[234\]
*789 clk\[235\]
*790 clk\[236\]
*791 clk\[237\]
*792 clk\[238\]
*793 clk\[239\]
*794 clk\[23\]
*795 clk\[240\]
*796 clk\[241\]
*797 clk\[242\]
*798 clk\[243\]
*799 clk\[244\]
*800 clk\[245\]
*801 clk\[246\]
*802 clk\[247\]
*803 clk\[248\]
*804 clk\[249\]
*805 clk\[24\]
*806 clk\[250\]
*807 clk\[251\]
*808 clk\[252\]
*809 clk\[253\]
*810 clk\[254\]
*811 clk\[255\]
*812 clk\[256\]
*813 clk\[257\]
*814 clk\[258\]
*815 clk\[259\]
*816 clk\[25\]
*817 clk\[260\]
*818 clk\[261\]
*819 clk\[262\]
*820 clk\[263\]
*821 clk\[264\]
*822 clk\[265\]
*823 clk\[266\]
*824 clk\[267\]
*825 clk\[268\]
*826 clk\[269\]
*827 clk\[26\]
*828 clk\[270\]
*829 clk\[271\]
*830 clk\[272\]
*831 clk\[273\]
*832 clk\[274\]
*833 clk\[275\]
*834 clk\[276\]
*835 clk\[277\]
*836 clk\[278\]
*837 clk\[279\]
*838 clk\[27\]
*839 clk\[280\]
*840 clk\[281\]
*841 clk\[282\]
*842 clk\[283\]
*843 clk\[284\]
*844 clk\[285\]
*845 clk\[286\]
*846 clk\[287\]
*847 clk\[288\]
*848 clk\[289\]
*849 clk\[28\]
*850 clk\[290\]
*851 clk\[291\]
*852 clk\[292\]
*853 clk\[293\]
*854 clk\[294\]
*855 clk\[295\]
*856 clk\[296\]
*857 clk\[297\]
*858 clk\[298\]
*859 clk\[299\]
*860 clk\[29\]
*861 clk\[2\]
*862 clk\[300\]
*863 clk\[301\]
*864 clk\[302\]
*865 clk\[303\]
*866 clk\[304\]
*867 clk\[305\]
*868 clk\[306\]
*869 clk\[307\]
*870 clk\[308\]
*871 clk\[309\]
*872 clk\[30\]
*873 clk\[310\]
*874 clk\[311\]
*875 clk\[312\]
*876 clk\[313\]
*877 clk\[314\]
*878 clk\[315\]
*879 clk\[316\]
*880 clk\[317\]
*881 clk\[318\]
*882 clk\[319\]
*883 clk\[31\]
*884 clk\[320\]
*885 clk\[321\]
*886 clk\[322\]
*887 clk\[323\]
*888 clk\[324\]
*889 clk\[325\]
*890 clk\[326\]
*891 clk\[327\]
*892 clk\[328\]
*893 clk\[329\]
*894 clk\[32\]
*895 clk\[330\]
*896 clk\[331\]
*897 clk\[332\]
*898 clk\[333\]
*899 clk\[334\]
*900 clk\[335\]
*901 clk\[336\]
*902 clk\[337\]
*903 clk\[338\]
*904 clk\[339\]
*905 clk\[33\]
*906 clk\[340\]
*907 clk\[341\]
*908 clk\[342\]
*909 clk\[343\]
*910 clk\[344\]
*911 clk\[345\]
*912 clk\[346\]
*913 clk\[347\]
*914 clk\[348\]
*915 clk\[349\]
*916 clk\[34\]
*917 clk\[350\]
*918 clk\[351\]
*919 clk\[352\]
*920 clk\[353\]
*921 clk\[354\]
*922 clk\[355\]
*923 clk\[356\]
*924 clk\[357\]
*925 clk\[358\]
*926 clk\[359\]
*927 clk\[35\]
*928 clk\[360\]
*929 clk\[361\]
*930 clk\[362\]
*931 clk\[363\]
*932 clk\[364\]
*933 clk\[365\]
*934 clk\[366\]
*935 clk\[367\]
*936 clk\[368\]
*937 clk\[369\]
*938 clk\[36\]
*939 clk\[370\]
*940 clk\[371\]
*941 clk\[372\]
*942 clk\[373\]
*943 clk\[374\]
*944 clk\[375\]
*945 clk\[376\]
*946 clk\[377\]
*947 clk\[378\]
*948 clk\[379\]
*949 clk\[37\]
*950 clk\[380\]
*951 clk\[381\]
*952 clk\[382\]
*953 clk\[383\]
*954 clk\[384\]
*955 clk\[385\]
*956 clk\[386\]
*957 clk\[387\]
*958 clk\[388\]
*959 clk\[389\]
*960 clk\[38\]
*961 clk\[390\]
*962 clk\[391\]
*963 clk\[39\]
*964 clk\[3\]
*965 clk\[40\]
*966 clk\[41\]
*967 clk\[42\]
*968 clk\[43\]
*969 clk\[44\]
*970 clk\[45\]
*971 clk\[46\]
*972 clk\[47\]
*973 clk\[48\]
*974 clk\[49\]
*975 clk\[4\]
*976 clk\[50\]
*977 clk\[51\]
*978 clk\[52\]
*979 clk\[53\]
*980 clk\[54\]
*981 clk\[55\]
*982 clk\[56\]
*983 clk\[57\]
*984 clk\[58\]
*985 clk\[59\]
*986 clk\[5\]
*987 clk\[60\]
*988 clk\[61\]
*989 clk\[62\]
*990 clk\[63\]
*991 clk\[64\]
*992 clk\[65\]
*993 clk\[66\]
*994 clk\[67\]
*995 clk\[68\]
*996 clk\[69\]
*997 clk\[6\]
*998 clk\[70\]
*999 clk\[71\]
*1000 clk\[72\]
*1001 clk\[73\]
*1002 clk\[74\]
*1003 clk\[75\]
*1004 clk\[76\]
*1005 clk\[77\]
*1006 clk\[78\]
*1007 clk\[79\]
*1008 clk\[7\]
*1009 clk\[80\]
*1010 clk\[81\]
*1011 clk\[82\]
*1012 clk\[83\]
*1013 clk\[84\]
*1014 clk\[85\]
*1015 clk\[86\]
*1016 clk\[87\]
*1017 clk\[88\]
*1018 clk\[89\]
*1019 clk\[8\]
*1020 clk\[90\]
*1021 clk\[91\]
*1022 clk\[92\]
*1023 clk\[93\]
*1024 clk\[94\]
*1025 clk\[95\]
*1026 clk\[96\]
*1027 clk\[97\]
*1028 clk\[98\]
*1029 clk\[99\]
*1030 clk\[9\]
*1031 data\[100\]
*1032 data\[101\]
*1033 data\[102\]
*1034 data\[103\]
*1035 data\[104\]
*1036 data\[105\]
*1037 data\[106\]
*1038 data\[107\]
*1039 data\[108\]
*1040 data\[109\]
*1041 data\[10\]
*1042 data\[110\]
*1043 data\[111\]
*1044 data\[112\]
*1045 data\[113\]
*1046 data\[114\]
*1047 data\[115\]
*1048 data\[116\]
*1049 data\[117\]
*1050 data\[118\]
*1051 data\[119\]
*1052 data\[11\]
*1053 data\[120\]
*1054 data\[121\]
*1055 data\[122\]
*1056 data\[123\]
*1057 data\[124\]
*1058 data\[125\]
*1059 data\[126\]
*1060 data\[127\]
*1061 data\[128\]
*1062 data\[129\]
*1063 data\[12\]
*1064 data\[130\]
*1065 data\[131\]
*1066 data\[132\]
*1067 data\[133\]
*1068 data\[134\]
*1069 data\[135\]
*1070 data\[136\]
*1071 data\[137\]
*1072 data\[138\]
*1073 data\[139\]
*1074 data\[13\]
*1075 data\[140\]
*1076 data\[141\]
*1077 data\[142\]
*1078 data\[143\]
*1079 data\[144\]
*1080 data\[145\]
*1081 data\[146\]
*1082 data\[147\]
*1083 data\[148\]
*1084 data\[149\]
*1085 data\[14\]
*1086 data\[150\]
*1087 data\[151\]
*1088 data\[152\]
*1089 data\[153\]
*1090 data\[154\]
*1091 data\[155\]
*1092 data\[156\]
*1093 data\[157\]
*1094 data\[158\]
*1095 data\[159\]
*1096 data\[15\]
*1097 data\[160\]
*1098 data\[161\]
*1099 data\[162\]
*1100 data\[163\]
*1101 data\[164\]
*1102 data\[165\]
*1103 data\[166\]
*1104 data\[167\]
*1105 data\[168\]
*1106 data\[169\]
*1107 data\[16\]
*1108 data\[170\]
*1109 data\[171\]
*1110 data\[172\]
*1111 data\[173\]
*1112 data\[174\]
*1113 data\[175\]
*1114 data\[176\]
*1115 data\[177\]
*1116 data\[178\]
*1117 data\[179\]
*1118 data\[17\]
*1119 data\[180\]
*1120 data\[181\]
*1121 data\[182\]
*1122 data\[183\]
*1123 data\[184\]
*1124 data\[185\]
*1125 data\[186\]
*1126 data\[187\]
*1127 data\[188\]
*1128 data\[189\]
*1129 data\[18\]
*1130 data\[190\]
*1131 data\[191\]
*1132 data\[192\]
*1133 data\[193\]
*1134 data\[194\]
*1135 data\[195\]
*1136 data\[196\]
*1137 data\[197\]
*1138 data\[198\]
*1139 data\[199\]
*1140 data\[19\]
*1141 data\[1\]
*1142 data\[200\]
*1143 data\[201\]
*1144 data\[202\]
*1145 data\[203\]
*1146 data\[204\]
*1147 data\[205\]
*1148 data\[206\]
*1149 data\[207\]
*1150 data\[208\]
*1151 data\[209\]
*1152 data\[20\]
*1153 data\[210\]
*1154 data\[211\]
*1155 data\[212\]
*1156 data\[213\]
*1157 data\[214\]
*1158 data\[215\]
*1159 data\[216\]
*1160 data\[217\]
*1161 data\[218\]
*1162 data\[219\]
*1163 data\[21\]
*1164 data\[220\]
*1165 data\[221\]
*1166 data\[222\]
*1167 data\[223\]
*1168 data\[224\]
*1169 data\[225\]
*1170 data\[226\]
*1171 data\[227\]
*1172 data\[228\]
*1173 data\[229\]
*1174 data\[22\]
*1175 data\[230\]
*1176 data\[231\]
*1177 data\[232\]
*1178 data\[233\]
*1179 data\[234\]
*1180 data\[235\]
*1181 data\[236\]
*1182 data\[237\]
*1183 data\[238\]
*1184 data\[239\]
*1185 data\[23\]
*1186 data\[240\]
*1187 data\[241\]
*1188 data\[242\]
*1189 data\[243\]
*1190 data\[244\]
*1191 data\[245\]
*1192 data\[246\]
*1193 data\[247\]
*1194 data\[248\]
*1195 data\[249\]
*1196 data\[24\]
*1197 data\[250\]
*1198 data\[251\]
*1199 data\[252\]
*1200 data\[253\]
*1201 data\[254\]
*1202 data\[255\]
*1203 data\[256\]
*1204 data\[257\]
*1205 data\[258\]
*1206 data\[259\]
*1207 data\[25\]
*1208 data\[260\]
*1209 data\[261\]
*1210 data\[262\]
*1211 data\[263\]
*1212 data\[264\]
*1213 data\[265\]
*1214 data\[266\]
*1215 data\[267\]
*1216 data\[268\]
*1217 data\[269\]
*1218 data\[26\]
*1219 data\[270\]
*1220 data\[271\]
*1221 data\[272\]
*1222 data\[273\]
*1223 data\[274\]
*1224 data\[275\]
*1225 data\[276\]
*1226 data\[277\]
*1227 data\[278\]
*1228 data\[279\]
*1229 data\[27\]
*1230 data\[280\]
*1231 data\[281\]
*1232 data\[282\]
*1233 data\[283\]
*1234 data\[284\]
*1235 data\[285\]
*1236 data\[286\]
*1237 data\[287\]
*1238 data\[288\]
*1239 data\[289\]
*1240 data\[28\]
*1241 data\[290\]
*1242 data\[291\]
*1243 data\[292\]
*1244 data\[293\]
*1245 data\[294\]
*1246 data\[295\]
*1247 data\[296\]
*1248 data\[297\]
*1249 data\[298\]
*1250 data\[299\]
*1251 data\[29\]
*1252 data\[2\]
*1253 data\[300\]
*1254 data\[301\]
*1255 data\[302\]
*1256 data\[303\]
*1257 data\[304\]
*1258 data\[305\]
*1259 data\[306\]
*1260 data\[307\]
*1261 data\[308\]
*1262 data\[309\]
*1263 data\[30\]
*1264 data\[310\]
*1265 data\[311\]
*1266 data\[312\]
*1267 data\[313\]
*1268 data\[314\]
*1269 data\[315\]
*1270 data\[316\]
*1271 data\[317\]
*1272 data\[318\]
*1273 data\[319\]
*1274 data\[31\]
*1275 data\[320\]
*1276 data\[321\]
*1277 data\[322\]
*1278 data\[323\]
*1279 data\[324\]
*1280 data\[325\]
*1281 data\[326\]
*1282 data\[327\]
*1283 data\[328\]
*1284 data\[329\]
*1285 data\[32\]
*1286 data\[330\]
*1287 data\[331\]
*1288 data\[332\]
*1289 data\[333\]
*1290 data\[334\]
*1291 data\[335\]
*1292 data\[336\]
*1293 data\[337\]
*1294 data\[338\]
*1295 data\[339\]
*1296 data\[33\]
*1297 data\[340\]
*1298 data\[341\]
*1299 data\[342\]
*1300 data\[343\]
*1301 data\[344\]
*1302 data\[345\]
*1303 data\[346\]
*1304 data\[347\]
*1305 data\[348\]
*1306 data\[349\]
*1307 data\[34\]
*1308 data\[350\]
*1309 data\[351\]
*1310 data\[352\]
*1311 data\[353\]
*1312 data\[354\]
*1313 data\[355\]
*1314 data\[356\]
*1315 data\[357\]
*1316 data\[358\]
*1317 data\[359\]
*1318 data\[35\]
*1319 data\[360\]
*1320 data\[361\]
*1321 data\[362\]
*1322 data\[363\]
*1323 data\[364\]
*1324 data\[365\]
*1325 data\[366\]
*1326 data\[367\]
*1327 data\[368\]
*1328 data\[369\]
*1329 data\[36\]
*1330 data\[370\]
*1331 data\[371\]
*1332 data\[372\]
*1333 data\[373\]
*1334 data\[374\]
*1335 data\[375\]
*1336 data\[376\]
*1337 data\[377\]
*1338 data\[378\]
*1339 data\[379\]
*1340 data\[37\]
*1341 data\[380\]
*1342 data\[381\]
*1343 data\[382\]
*1344 data\[383\]
*1345 data\[384\]
*1346 data\[385\]
*1347 data\[386\]
*1348 data\[387\]
*1349 data\[388\]
*1350 data\[389\]
*1351 data\[38\]
*1352 data\[390\]
*1353 data\[39\]
*1354 data\[3\]
*1355 data\[40\]
*1356 data\[41\]
*1357 data\[42\]
*1358 data\[43\]
*1359 data\[44\]
*1360 data\[45\]
*1361 data\[46\]
*1362 data\[47\]
*1363 data\[48\]
*1364 data\[49\]
*1365 data\[4\]
*1366 data\[50\]
*1367 data\[51\]
*1368 data\[52\]
*1369 data\[53\]
*1370 data\[54\]
*1371 data\[55\]
*1372 data\[56\]
*1373 data\[57\]
*1374 data\[58\]
*1375 data\[59\]
*1376 data\[5\]
*1377 data\[60\]
*1378 data\[61\]
*1379 data\[62\]
*1380 data\[63\]
*1381 data\[64\]
*1382 data\[65\]
*1383 data\[66\]
*1384 data\[67\]
*1385 data\[68\]
*1386 data\[69\]
*1387 data\[6\]
*1388 data\[70\]
*1389 data\[71\]
*1390 data\[72\]
*1391 data\[73\]
*1392 data\[74\]
*1393 data\[75\]
*1394 data\[76\]
*1395 data\[77\]
*1396 data\[78\]
*1397 data\[79\]
*1398 data\[7\]
*1399 data\[80\]
*1400 data\[81\]
*1401 data\[82\]
*1402 data\[83\]
*1403 data\[84\]
*1404 data\[85\]
*1405 data\[86\]
*1406 data\[87\]
*1407 data\[88\]
*1408 data\[89\]
*1409 data\[8\]
*1410 data\[90\]
*1411 data\[91\]
*1412 data\[92\]
*1413 data\[93\]
*1414 data\[94\]
*1415 data\[95\]
*1416 data\[96\]
*1417 data\[97\]
*1418 data\[98\]
*1419 data\[99\]
*1420 data\[9\]
*1421 latch\[100\]
*1422 latch\[101\]
*1423 latch\[102\]
*1424 latch\[103\]
*1425 latch\[104\]
*1426 latch\[105\]
*1427 latch\[106\]
*1428 latch\[107\]
*1429 latch\[108\]
*1430 latch\[109\]
*1431 latch\[10\]
*1432 latch\[110\]
*1433 latch\[111\]
*1434 latch\[112\]
*1435 latch\[113\]
*1436 latch\[114\]
*1437 latch\[115\]
*1438 latch\[116\]
*1439 latch\[117\]
*1440 latch\[118\]
*1441 latch\[119\]
*1442 latch\[11\]
*1443 latch\[120\]
*1444 latch\[121\]
*1445 latch\[122\]
*1446 latch\[123\]
*1447 latch\[124\]
*1448 latch\[125\]
*1449 latch\[126\]
*1450 latch\[127\]
*1451 latch\[128\]
*1452 latch\[129\]
*1453 latch\[12\]
*1454 latch\[130\]
*1455 latch\[131\]
*1456 latch\[132\]
*1457 latch\[133\]
*1458 latch\[134\]
*1459 latch\[135\]
*1460 latch\[136\]
*1461 latch\[137\]
*1462 latch\[138\]
*1463 latch\[139\]
*1464 latch\[13\]
*1465 latch\[140\]
*1466 latch\[141\]
*1467 latch\[142\]
*1468 latch\[143\]
*1469 latch\[144\]
*1470 latch\[145\]
*1471 latch\[146\]
*1472 latch\[147\]
*1473 latch\[148\]
*1474 latch\[149\]
*1475 latch\[14\]
*1476 latch\[150\]
*1477 latch\[151\]
*1478 latch\[152\]
*1479 latch\[153\]
*1480 latch\[154\]
*1481 latch\[155\]
*1482 latch\[156\]
*1483 latch\[157\]
*1484 latch\[158\]
*1485 latch\[159\]
*1486 latch\[15\]
*1487 latch\[160\]
*1488 latch\[161\]
*1489 latch\[162\]
*1490 latch\[163\]
*1491 latch\[164\]
*1492 latch\[165\]
*1493 latch\[166\]
*1494 latch\[167\]
*1495 latch\[168\]
*1496 latch\[169\]
*1497 latch\[16\]
*1498 latch\[170\]
*1499 latch\[171\]
*1500 latch\[172\]
*1501 latch\[173\]
*1502 latch\[174\]
*1503 latch\[175\]
*1504 latch\[176\]
*1505 latch\[177\]
*1506 latch\[178\]
*1507 latch\[179\]
*1508 latch\[17\]
*1509 latch\[180\]
*1510 latch\[181\]
*1511 latch\[182\]
*1512 latch\[183\]
*1513 latch\[184\]
*1514 latch\[185\]
*1515 latch\[186\]
*1516 latch\[187\]
*1517 latch\[188\]
*1518 latch\[189\]
*1519 latch\[18\]
*1520 latch\[190\]
*1521 latch\[191\]
*1522 latch\[192\]
*1523 latch\[193\]
*1524 latch\[194\]
*1525 latch\[195\]
*1526 latch\[196\]
*1527 latch\[197\]
*1528 latch\[198\]
*1529 latch\[199\]
*1530 latch\[19\]
*1531 latch\[1\]
*1532 latch\[200\]
*1533 latch\[201\]
*1534 latch\[202\]
*1535 latch\[203\]
*1536 latch\[204\]
*1537 latch\[205\]
*1538 latch\[206\]
*1539 latch\[207\]
*1540 latch\[208\]
*1541 latch\[209\]
*1542 latch\[20\]
*1543 latch\[210\]
*1544 latch\[211\]
*1545 latch\[212\]
*1546 latch\[213\]
*1547 latch\[214\]
*1548 latch\[215\]
*1549 latch\[216\]
*1550 latch\[217\]
*1551 latch\[218\]
*1552 latch\[219\]
*1553 latch\[21\]
*1554 latch\[220\]
*1555 latch\[221\]
*1556 latch\[222\]
*1557 latch\[223\]
*1558 latch\[224\]
*1559 latch\[225\]
*1560 latch\[226\]
*1561 latch\[227\]
*1562 latch\[228\]
*1563 latch\[229\]
*1564 latch\[22\]
*1565 latch\[230\]
*1566 latch\[231\]
*1567 latch\[232\]
*1568 latch\[233\]
*1569 latch\[234\]
*1570 latch\[235\]
*1571 latch\[236\]
*1572 latch\[237\]
*1573 latch\[238\]
*1574 latch\[239\]
*1575 latch\[23\]
*1576 latch\[240\]
*1577 latch\[241\]
*1578 latch\[242\]
*1579 latch\[243\]
*1580 latch\[244\]
*1581 latch\[245\]
*1582 latch\[246\]
*1583 latch\[247\]
*1584 latch\[248\]
*1585 latch\[249\]
*1586 latch\[24\]
*1587 latch\[250\]
*1588 latch\[251\]
*1589 latch\[252\]
*1590 latch\[253\]
*1591 latch\[254\]
*1592 latch\[255\]
*1593 latch\[256\]
*1594 latch\[257\]
*1595 latch\[258\]
*1596 latch\[259\]
*1597 latch\[25\]
*1598 latch\[260\]
*1599 latch\[261\]
*1600 latch\[262\]
*1601 latch\[263\]
*1602 latch\[264\]
*1603 latch\[265\]
*1604 latch\[266\]
*1605 latch\[267\]
*1606 latch\[268\]
*1607 latch\[269\]
*1608 latch\[26\]
*1609 latch\[270\]
*1610 latch\[271\]
*1611 latch\[272\]
*1612 latch\[273\]
*1613 latch\[274\]
*1614 latch\[275\]
*1615 latch\[276\]
*1616 latch\[277\]
*1617 latch\[278\]
*1618 latch\[279\]
*1619 latch\[27\]
*1620 latch\[280\]
*1621 latch\[281\]
*1622 latch\[282\]
*1623 latch\[283\]
*1624 latch\[284\]
*1625 latch\[285\]
*1626 latch\[286\]
*1627 latch\[287\]
*1628 latch\[288\]
*1629 latch\[289\]
*1630 latch\[28\]
*1631 latch\[290\]
*1632 latch\[291\]
*1633 latch\[292\]
*1634 latch\[293\]
*1635 latch\[294\]
*1636 latch\[295\]
*1637 latch\[296\]
*1638 latch\[297\]
*1639 latch\[298\]
*1640 latch\[299\]
*1641 latch\[29\]
*1642 latch\[2\]
*1643 latch\[300\]
*1644 latch\[301\]
*1645 latch\[302\]
*1646 latch\[303\]
*1647 latch\[304\]
*1648 latch\[305\]
*1649 latch\[306\]
*1650 latch\[307\]
*1651 latch\[308\]
*1652 latch\[309\]
*1653 latch\[30\]
*1654 latch\[310\]
*1655 latch\[311\]
*1656 latch\[312\]
*1657 latch\[313\]
*1658 latch\[314\]
*1659 latch\[315\]
*1660 latch\[316\]
*1661 latch\[317\]
*1662 latch\[318\]
*1663 latch\[319\]
*1664 latch\[31\]
*1665 latch\[320\]
*1666 latch\[321\]
*1667 latch\[322\]
*1668 latch\[323\]
*1669 latch\[324\]
*1670 latch\[325\]
*1671 latch\[326\]
*1672 latch\[327\]
*1673 latch\[328\]
*1674 latch\[329\]
*1675 latch\[32\]
*1676 latch\[330\]
*1677 latch\[331\]
*1678 latch\[332\]
*1679 latch\[333\]
*1680 latch\[334\]